#
#	File Created by: Spartan '08 Export
#

@<TRIPOS>MOLECULE
M0001
5 4
SMALL
USER_CHARGES


@<TRIPOS>ATOM
    1   C          0.000000000     0.000000000     0.000000000     C.3   1  M0001    0.423049
    2   F2         0.767550071     0.767550071     0.767550071       F   1  M0001   -0.105762
    3   F4        -0.767550071    -0.767550071     0.767550071       F   1  M0001   -0.105762
    4   F1        -0.767550071     0.767550071    -0.767550071       F   1  M0001   -0.105762
    5   F3         0.767550071    -0.767550071    -0.767550071       F   1  M0001   -0.105762


@<TRIPOS>BOND
    1      1      2    1
    2      1      3    1
    3      1      4    1
    4      1      5    1
