#
#	File Created by: Spartan '08 Export
#

@<TRIPOS>MOLECULE
M0001
5 4
SMALL
USER_CHARGES


@<TRIPOS>ATOM
    1   C          0.000000000     0.508880377     0.000000000     C.3   1  M0001    0.100550
    2   F1        -0.849638760    -0.279924721     0.712931573       F   1  M0001   -0.159942
    3   F2         0.849638760    -0.279924721    -0.712931573       F   1  M0001   -0.159942
    4   H2         0.584571302     1.120073795     0.696664989       H   1  M0001    0.109667
    5   H1        -0.584571302     1.120073795    -0.696664989       H   1  M0001    0.109667


@<TRIPOS>BOND
    1      1      2    1
    2      1      3    1
    3      1      4    1
    4      1      5    1
