#
#	File Created by: Spartan '08 Export
#

@<TRIPOS>MOLECULE
M0001
4 3
SMALL
USER_CHARGES


@<TRIPOS>ATOM
    1   N          0.000000000  0.126805440  0.073211156     N.3   1  M0001   -1.009460
    2   H3         0.812950611  0.017126748 -0.532078981       H   1  M0001    0.337416
    3   H2         0.000000004 -0.686909199  0.687346876       H   1  M0001    0.336022
    4   H1        -0.812950611  0.017126746 -0.532078862       H   1  M0001    0.336022


@<TRIPOS>BOND
    1      1      2    1
    2      1      3    1
    3      1      4    1
