#
#	File Created by: Spartan '08 Export
#

@<TRIPOS>MOLECULE
M0001
4 3
SMALL
USER_CHARGES


@<TRIPOS>ATOM
    1   B1         0.000000000     0.000000000     0.000000000       B   1  M0001    0.842505
    2   F2         1.317730477     0.000000000     0.000000000       F   1  M0001   -0.281790
    3   F3        -0.658865212    -1.141188034     0.000000000       F   1  M0001   -0.280358
    4   F4        -0.658865212     1.141188034     0.000000000       F   1  M0001   -0.280358


@<TRIPOS>BOND
    1      1      2    1
    2      1      3    1
    3      1      4    1
