#
#	File Created by: Spartan '08 Export
#

@<TRIPOS>MOLECULE
M0001
4 3
SMALL
USER_CHARGES


@<TRIPOS>ATOM
    1   B          0.000000000     0.000000000     0.000000000       B   1  M0001    0.301318
    2   H2         1.194020007     0.000000000     0.000000000       H   1  M0001   -0.100484
    3   H1        -0.597010030     1.034051652     0.000000000       H   1  M0001   -0.100417
    4   H3        -0.597010030    -1.034051652     0.000000000       H   1  M0001   -0.100417


@<TRIPOS>BOND
    1      1      2    1
    2      1      3    1
    3      1      4    1
