#
#	File Created by: Spartan '08 Export
#

@<TRIPOS>MOLECULE
M0001
5 4
SMALL
USER_CHARGES


@<TRIPOS>ATOM
    1   C1         0.000000000     0.000000000     0.508880522     C.3   1  M0001    0.100550
    2   F1        -1.109124829     0.000000000    -0.279924737       F   1  M0001   -0.159942
    3   F2         1.109124829     0.000000000    -0.279924737       F   1  M0001   -0.159942
    4   H1         0.000000000    -0.909431633     1.120073924       H   1  M0001    0.109667
    5   H2         0.000000000     0.909431633     1.120073924       H   1  M0001    0.109667


@<TRIPOS>BOND
    1      1      2    1
    2      1      3    1
    3      1      4    1
    4      1      5    1
