#
#	File Created by: Spartan '08 Export
#

@<TRIPOS>MOLECULE
M0001
4 3
SMALL
USER_CHARGES


@<TRIPOS>ATOM
    1   O1         0.000000000     0.000000000     0.675891852     O.2   1  M0001   -0.346831
    2   C2         0.000000000     0.000000000    -0.530642873     C.2   1  M0001    0.269975
    3   H3         0.937819386     0.000000000    -1.125678015       H   1  M0001    0.038428
    4   H4        -0.937819386     0.000000000    -1.125678015       H   1  M0001    0.038428


@<TRIPOS>BOND
    1      2      3    1
    2      2      4    1
    3      1      2    2
