#
#	File Created by: Spartan '08 Export
#

@<TRIPOS>MOLECULE
M0001
5 4
SMALL
USER_CHARGES


@<TRIPOS>ATOM
    1   C1         0.000000000     0.000000000     0.628889981     C.3   1  M0001   -0.230517
    2   F1         0.000000000     0.000000000    -0.754349486       F   1  M0001   -0.166365
    3   H1         1.032880901     0.000000000     0.997171243       H   1  M0001    0.132320
    4   H2        -0.516440450     0.894501115     0.997171243       H   1  M0001    0.132281
    5   H3        -0.516440450    -0.894501115     0.997171243       H   1  M0001    0.132281


@<TRIPOS>BOND
    1      1      2    1
    2      1      3    1
    3      1      4    1
    4      1      5    1
