#
#	File Created by: Spartan '08 Export
#

@<TRIPOS>MOLECULE
M0001
5 4
SMALL
USER_CHARGES


@<TRIPOS>ATOM
    1   C          0.000000000     0.000000000     0.000000000     C.3   1  M0001   -0.802069
    2   H2         0.631308955     0.631308955     0.631308955       H   1  M0001    0.200517
    3   H4        -0.631308955    -0.631308955     0.631308955       H   1  M0001    0.200517
    4   H1        -0.631308955     0.631308955    -0.631308955       H   1  M0001    0.200517
    5   H3         0.631308955    -0.631308955    -0.631308955       H   1  M0001    0.200517


@<TRIPOS>BOND
    1      1      2    1
    2      1      3    1
    3      1      4    1
    4      1      5    1
