#
#	File Created by: Spartan '08 Export
#

@<TRIPOS>MOLECULE
M0001
5 4
SMALL
USER_CHARGES


@<TRIPOS>ATOM
    1   C1         0.000000000     0.000000000     0.471084213     C.3   1  M0001   -0.025406
    2   Cl1        1.705662780     0.000000000    -0.067122716      Cl   1  M0001   -0.052513
    3   Cl2       -0.852831390    -1.477147271    -0.067122716      Cl   1  M0001   -0.052227
    4   Cl2       -0.852831390     1.477147271    -0.067122716      Cl   1  M0001   -0.052227
    5   H1         0.000000000     0.000000000     1.556696597       H   1  M0001    0.182373


@<TRIPOS>BOND
    1      1      2    1
    2      1      3    1
    3      1      4    1
    4      1      5    1
