#
#	File Created by: Spartan '08 Export
#

@<TRIPOS>MOLECULE
M0001
5 4
SMALL
USER_CHARGES


@<TRIPOS>ATOM
    1   C1         0.000000000     0.000000000     0.338383767     C.3   1  M0001    0.282658
    2   F1         1.257790333     0.000000000    -0.129111197       F   1  M0001   -0.135111
    3   F2        -0.628895167    -1.089278363    -0.129111197       F   1  M0001   -0.135350
    4   F3        -0.628895167     1.089278363    -0.129111197       F   1  M0001   -0.135350
    5   H1         0.000000000     0.000000000     1.431213754       H   1  M0001    0.123152


@<TRIPOS>BOND
    1      1      2    1
    2      1      3    1
    3      1      4    1
    4      1      5    1
