#
#	File Created by: Spartan '08 Export
#

@<TRIPOS>MOLECULE
M0001
2 1
SMALL
USER_CHARGES


@<TRIPOS>ATOM
    1   C1         0.000000000     0.000000000    -0.648544355       C   1  M0001   -0.013842
    2   O2         0.000000000     0.000000000     0.489401569       O   1  M0001    0.013842


@<TRIPOS>BOND
    1      1      2    3
