#
#	File Created by: Spartan '08 Export
#

@<TRIPOS>MOLECULE
M0001
2 1
SMALL
USER_CHARGES


@<TRIPOS>ATOM
    1   F1         0.000000000     0.000000000     0.701463749       F   1  M0001   -0.000000
    2   F2         0.000000000     0.000000000    -0.701463749       F   1  M0001    0.000000


@<TRIPOS>BOND
    1      1      2    1
