#
#	File Created by: Spartan '08 Export
#

@<TRIPOS>MOLECULE
M0001
3 2
SMALL
USER_CHARGES


@<TRIPOS>ATOM
    1   H1         0.761229899     0.000000000     0.478138566       H   1  M0001    0.376285
    2   O2         0.000000000     0.000000000    -0.120865773     O.3   1  M0001   -0.752569
    3   H3        -0.761229899     0.000000000     0.478138566       H   1  M0001    0.376285


@<TRIPOS>BOND
    1      1      2    1
    2      2      3    1
