#
#	File Created by: Spartan '08 Export
#

@<TRIPOS>MOLECULE
M0001
3 2
SMALL
USER_CHARGES


@<TRIPOS>ATOM
    1   C1         0.000000000     0.000000000    -0.507116828     C.1   1  M0001    0.047988
    2   N2         0.000000000     0.000000000     0.649877246     N.1   1  M0001   -0.282540
    3   H3         0.000000000     0.000000000    -1.577592738       H   1  M0001    0.234552


@<TRIPOS>BOND
    1      1      2    3
    2      1      3    1
