#
#	File Created by: Spartan '08 Export
#

@<TRIPOS>MOLECULE
M0001
3 2
SMALL
USER_CHARGES


@<TRIPOS>ATOM
    1   C1        -0.507116828     0.000000000     0.000000000     C.1   1  M0001    0.047988
    2   N1         0.649877246     0.000000000     0.000000000     N.1   1  M0001   -0.282540
    3   H1        -1.577592738     0.000000000     0.000000000       H   1  M0001    0.234552


@<TRIPOS>BOND
    1      1      2    3
    2      1      3    1
