#
#	File Created by: Spartan '08 Export
#

@<TRIPOS>MOLECULE
M0001
2 1
SMALL
USER_CHARGES


@<TRIPOS>ATOM
    1   F1         0.000000000     0.000000000     0.088719117       F   1  M0001   -0.430703
    2   H1         0.000000000     0.000000000    -0.845032750       H   1  M0001    0.430703


@<TRIPOS>BOND
    1      1      2    1
