#
#	File Created by: Spartan '08 Export
#

@<TRIPOS>MOLECULE
M0001
4 3
SMALL
USER_CHARGES


@<TRIPOS>ATOM
    1   N1         0.000000000     0.000000000     0.146422323     N.3   1  M0001   -1.009460
    2   H2         0.938714647     0.000000000    -0.251207307       H   1  M0001    0.337416
    3   H3        -0.469357297    -0.812950706    -0.251207307       H   1  M0001    0.336022
    4   H4        -0.469357297     0.812950706    -0.251207307       H   1  M0001    0.336022


@<TRIPOS>BOND
    1      1      2    1
    2      1      3    1
    3      1      4    1
