#
#	File Created by: Spartan '08 Export
#

@<TRIPOS>MOLECULE
M0001
3 2
SMALL
USER_CHARGES


@<TRIPOS>ATOM
    1   O1         0.000000000     0.000000000     0.434529301     O.3   1  M0001    0.242265
    2   O2        -1.083210079     0.000000000    -0.217264624       O   1  M0001   -0.121133
    3   O3         1.083210079     0.000000000    -0.217264624       O   1  M0001   -0.121133


@<TRIPOS>BOND
    1      1      2    1
    2      1      3    1
