#
#	File Created by: Spartan '08 Export
#

@<TRIPOS>MOLECULE
M0001
4 3
SMALL
USER_CHARGES


@<TRIPOS>ATOM
    1   C          0.000000000    -0.513414193     0.000000000     C.2   1  M0001    0.270184
    2   H2         0.937733342    -1.108161039     0.000000000       H   1  M0001    0.038366
    3   H1        -0.937733342    -1.108161039     0.000000000       H   1  M0001    0.038366
    4   O          0.000000000     0.693037081     0.000000000     O.2   1  M0001   -0.346916


@<TRIPOS>BOND
    1      1      2    1
    2      1      3    1
    3      1      4    2
