#
#	File Created by: Spartan '08 Export
#

@<TRIPOS>MOLECULE
M0001
5 4
SMALL
USER_CHARGES


@<TRIPOS>ATOM
    1   C          0.000000000    -0.544634581     -0.314444929     C.3   1  M0001   -0.230517
    2   F          0.000000000     0.653285682      0.377174675       F   1  M0001   -0.166365
    3   H3         0.894500911    -0.605355263     -0.945836067       H   1  M0001    0.132320
    4   H2         0.000000022    -1.380015731      0.395915449       H   1  M0001    0.132281
    5   H1        -0.894500971    -0.605355263     -0.945836067       H   1  M0001    0.132281


@<TRIPOS>BOND
    1      1      2    1
    2      1      3    1
    3      1      4    1
    4      1      5    1
