#
#	File Created by: Spartan '08 Export
#

@<TRIPOS>MOLECULE
M0001
5 4
SMALL
USER_CHARGES


@<TRIPOS>ATOM
    1   C          0.000000000     0.306679815     0.143007144     C.3   1  M0001    0.282658
    2   F3         1.238681555    -0.024709182    -0.252514124       F   1  M0001   -0.135111
    3   F2        -0.430189639    -0.616522312     1.016633272       F   1  M0001   -0.135350
    4   F1        -0.808491945     0.290188044    -0.927813411       F   1  M0001   -0.135350
    5   H          0.000000000     1.297120094     0.604857028       H   1  M0001    0.123152


@<TRIPOS>BOND
    1      1      2    1
    2      1      3    1
    3      1      4    1
    4      1      5    1
