#
#	File Created by: Spartan '08 Export
#

@<TRIPOS>MOLECULE
M0001
3 2
SMALL
USER_CHARGES


@<TRIPOS>ATOM
    1   C          0.000000053     0.000000000     0.000000000       C   1  M0001    0.685248
    2   O2         1.169151228     0.000000000     0.000000000     O.2   1  M0001   -0.342624
    3   O1        -1.169151228     0.000000000     0.000000000     O.2   1  M0001   -0.342624


@<TRIPOS>BOND
    1      1      2    2
    2      1      3    2
