#
#	File Created by: Spartan '08 Export
#

@<TRIPOS>MOLECULE
M0001
2 1
SMALL
USER_CHARGES


@<TRIPOS>ATOM
    1   N2         0.552776918     0.000000000     0.000000000     N.1   1  M0001    0.000000
    2   N1        -0.552776918     0.000000000     0.000000000     N.1   1  M0001   -0.000000


@<TRIPOS>BOND
    1      1      2    3
