#
#	File Created by: Spartan '08 Export
#

@<TRIPOS>MOLECULE
M0001
2 1
SMALL
USER_CHARGES


@<TRIPOS>ATOM
    1   O2         0.607254209      0.000000000     0.000000000     O.2   1  M0001    0.000000
    2   O1        -0.607254209      0.000000000     0.000000000     O.2   1  M0001   -0.000000


@<TRIPOS>BOND
    1      1      2    2
